11

C      1.4644470057   -0.3931352516    0.2275682684
C      0.3084172273    0.6021818876   -0.4482447337
C     -1.1720078046    0.2477401898    0.1861855106
O     -1.5602833857    0.9230866456    1.2906304850
O     -2.0289266515   -0.7897700650   -0.4775702287
H      2.5256624712    0.1014559555    0.2238626510
H      1.4392301780   -1.4346564494   -0.3547947627
H      1.0568599261   -0.6340218462    1.3083555788
H      0.2546251204    0.4630929077   -1.6363068254
H      0.5905974541    1.7403165808   -0.2264376013
H     -2.3920601788   -1.3824645213    0.2494319221
