11

C      1.4521521266   -0.1050015960    0.2957497510
C      0.1200439139    0.5327736011   -0.4268696316
C     -1.1142426781   -0.5377321423   -0.2911984936
O     -1.4043703054   -1.4286210395   -1.2687930707
O     -1.9734304631   -0.5472832899    0.9348283025
H      1.1364442556   -0.4232468120    1.4007384545
H      2.3723653060    0.6165190254    0.3472623784
H      1.7017219266   -1.1083797736   -0.2919866158
H      0.2731670988    0.8326227476   -1.5438167528
H     -0.1585291390    1.4995103838    0.1743266929
H     -1.3309863263   -0.4772753602    1.7060113279
