11

C      1.4419260893   -0.2524386747   -0.2399846612
C      0.1245316856    0.2764719799    0.6349747360
C     -1.2500312728   -0.3980555936   -0.0078395815
O     -1.2144118625   -1.6508912135   -0.5429255094
O     -2.5251185287    0.3916911771    0.0159415650
H      1.5178189422   -1.4359412988   -0.2599899207
H      2.4421090092    0.1768123420    0.1910964580
H      1.2463425883    0.1565675846   -1.3428433669
H      0.0211945487    1.4435932698    0.5668531980
H      0.1906410510    0.0017231184    1.7734400718
H     -2.5266520692    0.7536224853    0.9715438799
