11

C      1.3105263083   -0.1486812613    0.1403791283
C      0.0372513243    0.7983289749   -0.3083699717
C     -1.3380066095    0.0662322087    0.2116659052
O     -2.4699678398    0.7757633099    0.4753445748
O     -1.4788175093   -1.4106084917    0.4410068506
H      1.1004366360   -0.4672996487    1.2694811298
H      2.2986656687    0.5006698152    0.1275826764
H      1.3879873028   -1.1166019952   -0.5411254442
H     -0.0465785061    0.9302587646   -1.4891965291
H      0.0626771793    1.8814514697    0.1351656224
H     -1.0583047590   -1.8770656644   -0.3436925227
