11
Coordinates from ORCA-job orca
  C   1.25349346704586     -0.34192342869615     -0.29752222623678
  C   0.22788105767999      0.70242217581641      0.17082631100933
  C   -1.18191778000944      0.21580131756396     -0.05918103982832
  O   -1.88480722262911      0.49129394902524     -1.01015045084334
  O   -1.59030085592757     -0.63338395257616      0.93129136151718
  H   2.27463915842538      0.03417392540495     -0.14685211466350
  H   1.12574047894094     -0.56267697490690     -1.36618686338632
  H   1.14741535720923     -1.27888134488121      0.26506771677116
  H   0.34591225383339      1.63571845059090     -0.39348782766299
  H   0.36916197720908      0.91400861092516      1.24035103856150
  H   -2.48862018327776     -0.92695584826621      0.67240248466210
