24

C     -2.1766656102    4.1240500598    1.0760267038
C     -3.2759361479    4.9754902895    0.4151428445
H     -2.5773145448    3.1571093025    1.3542770388
H     -1.8088456390    4.6193181322    1.9688044065
O     -4.1550962346    5.3351364358    1.4789232131
H     -1.3737181102    3.9853265935    0.3588950544
N     -3.8882218150    4.1869563740   -0.6390376998
C     -4.8326898962    3.1823887601   -0.1902106023
C     -5.2108688678    6.2212185445    1.1588234282
C     -4.3678556585    4.8671585548   -1.8256530234
H     -4.5069305061    4.1118283894   -2.5999681399
H     -4.5699291397    2.8317924789    0.8034597431
H     -4.7976161731    2.3432787532   -0.8871552473
H     -5.8649126706    3.5586840617   -0.1564889770
H     -3.6212620203    5.5814457499   -2.1570992828
H     -5.3235076571    5.3890169611   -1.6733432427
O     -2.7524747345    6.1256495971   -0.1967128330
C     -1.9302639544    6.9469637395    0.6131814405
H     -4.8858648634    6.9783307542    0.4406509643
H     -5.4989534650    6.7027283385    2.0933589908
H     -6.0737079809    5.6840066615    0.7512913845
H     -0.9226157180    6.5319179606    0.7056870850
H     -2.3626192182    7.0828439320    1.6080352073
H     -1.8808810744    7.9069730258    0.1012895235
