26

N      0.4398550943    2.0812861634    1.4443336389
C      1.2687999310    0.9271084136    1.7314779759
C      2.5203428673    0.9251684395    0.8668013887
O      3.1008971144   -0.0592491322    0.4970624174
H      0.9931251043    2.9289463140    1.4244603203
O      2.9690247945    2.1582415702    0.6073910488
H     -0.2848683091    2.1795620626    2.1453845890
H      1.6659854655    0.9259172913    2.7701059255
C      0.4722441072   -0.3685458500    1.5294722832
H     -0.3355435228   -0.3980038522    2.2636404836
H      1.1368716847   -1.2142645228    1.7115598557
C     -0.1105644695   -0.4584162794    0.1228344455
H      0.7046776013   -0.4920942102   -0.6017394193
H     -0.7092482310    0.4302099668   -0.0790162452
C     -0.9812516483   -1.7077855411   -0.0460845866
H     -0.3867911572   -2.6046214800    0.1505686618
N     -1.5339851550   -1.8407970820   -1.3768175974
H     -1.7989207839   -1.6883130076    0.6803820618
C     -2.4614515883   -0.9650073257   -1.9138085949
H     -0.8656564093   -2.1665077506   -2.0617797887
N     -2.6885525748   -0.8070431615   -3.1536843298
N     -3.1981187147   -0.2206349077   -1.0157435287
H     -2.0615681229   -1.3199791519   -3.7645598141
H     -3.9762058819    0.2346526535   -1.4683395089
H     -3.4384230576   -0.6773260396   -0.1504681096
H      3.7743258618    2.1134964195    0.0675664269
