16

H     -0.1814004444    2.8693994785    0.3058338939
H      2.3178693341    1.7532882518    0.2699007047
H     -0.7730032967   -0.9421573859    1.4996589864
H     -2.0492912382   -1.5100856138    0.1319390635
H     -0.0159709400   -0.7515012094   -1.7200737390
H      0.2715949148   -2.4166772690   -0.7667503640
H      2.4932889111   -0.9102534105   -0.4541899973
H      1.4901626229   -0.9627216333    1.1709388250
H     -1.6518996286    0.7862508585   -1.1476026586
H     -2.3339923617    1.1940155520    0.5832530982
C      1.3465793983    1.0847273065    0.1734481995
C     -0.0342985954    1.6923455358    0.1798790660
C     -1.3994012164    0.7740165383    0.0174979088
C      1.4937016759   -0.5639579740    0.0462996637
C      0.1434529108   -1.2586567304   -0.6521428314
C     -1.1173920465   -0.8380322952    0.3621101808
