ethene
  PyMOL2.5          3D                             0

  6  5  0  0  0  0  0  0  0  0999 V2000
   -0.0862    0.0396    0.0000 C   0  0  0  0  0  0  0  0  0  0  0  0
   -1.4138    0.0396   -0.0000 C   0  0  0  0  0  0  0  0  0  0  0  0
    0.4841    0.9606    0.0000 H   0  0  0  0  0  0  0  0  0  0  0  0
    0.5597   -0.8266   -0.0000 H   0  0  0  0  0  0  0  0  0  0  0  0
   -1.9841    0.9606    0.0000 H   0  0  0  0  0  0  0  0  0  0  0  0
   -2.0597   -0.8266   -0.0000 H   0  0  0  0  0  0  0  0  0  0  0  0
  1  2  2  0  0  0  0
  1  3  1  0  0  0  0
  1  4  1  0  0  0  0
  2  5  1  0  0  0  0
  2  6  1  0  0  0  0
M  END
