13

C     -3.4586700981    0.7426935309   -0.1809181650
C     -3.0104416916    2.0035764496    0.0533163225
O     -2.4363315196   -0.1350928952   -0.1639157206
C     -1.6078781409    1.8921892518    0.2327427859
C     -1.3109394996    0.5686355641    0.0916875053
C     -0.0115804026   -0.1749862568    0.1674653603
O      1.1011999905    0.6266020013   -0.1397470854
H      0.9953282974    0.9885702480   -1.0286466784
H     -4.4371211917    0.3482261348   -0.3687957492
H     -3.5941767990    2.8998288406    0.0956067608
H     -0.9167652698    2.6826125245    0.4413551052
H     -0.0699885113   -1.0527959703   -0.4937678762
H      0.1588155363   -0.5331643333    1.1893868147
