6

C     -1.8245440000    0.6617140000   -0.2944760000
O     -1.1389390000   -0.5756560000   -0.2393670000
H     -1.1452140000    1.5282520000   -0.3112110000
H     -2.4062180000    0.6731780000   -1.2208060000
H     -0.5828340000   -0.5731880000    0.5567800000
H     -2.5244670000    0.7962980000    0.5441790000
