17
   dftb3 optimized
C     -3.5445628128    2.0215753918   -0.1440104929
C     -2.2489114608    2.8380823260   -0.2686179383
C     -1.4761384134    2.2007266416   -1.4567789740
N     -2.0914225555    0.8632818733   -1.6939956397
C     -3.5152962667    1.0256740969   -1.3226979537
H     -4.4342050957    2.6548875421   -0.1738824793
H     -1.6487009507    2.7882727424    0.6431280142
H     -2.4467842893    3.8950953117   -0.4584739029
H     -1.6392109266    2.8163058167   -2.3633046084
H     -1.6705004291    0.1967754313   -1.0356801525
H     -3.9476244848    0.0506427829   -1.0758186844
H     -4.0716174662    1.4285660115   -2.1815441649
H     -3.5720956576    1.4862249815    0.8091741985
C      0.0384610247    2.0706603608   -1.2552557030
O      0.6862520676    2.7270360738   -0.4628021311
O      0.6251346889    1.1475137453   -2.0714418190
H     -0.0409569721    0.7037088706   -2.6208075683
