27

C     -1.6324883515   -1.6392612468   -1.2146109857
C     -2.1567298648   -0.2219571050   -0.9784273562
C     -1.3042471720    0.3269336757    0.1921456464
N     -0.1271412649   -0.5933918629    0.2966247921
C     -0.1593795296   -1.5628179606   -0.8188483797
H     -1.7702127462   -1.9695276900   -2.2463757670
H     -3.2252174754   -0.1979759386   -0.7521807203
H     -2.0040557642    0.3931072002   -1.8702061481
H     -0.9782431011    1.3603158203   -0.0157350662
H     -0.9703417710   -1.1092002682    1.9849582571
H      0.2499088820   -2.5358480605   -0.5018159314
H      0.4551797776   -1.2238973199   -1.6743724118
H     -2.1608650326   -2.3515444613   -0.5730264508
C     -2.0944377990    0.3405953998    1.5302322699
O     -3.0090919136    1.1068732558    1.7648343384
O     -1.6830603602   -0.6004963099    2.4214909449
H      0.6621394052    0.3077813655    2.4769414374
C      1.1867296016    0.0612016537    0.5843582723
C      1.7196952592    0.9746212929   -0.5412291642
C      3.0533625792    1.6079171745   -0.1681044329
O      1.0363089382    0.8342638548    1.7607714860
H      1.9228219696   -0.7663695646    0.7669455098
H      1.8288052923    0.3901122374   -1.4607126386
H      0.9883217670    1.7612512937   -0.7485897955
H      2.9575620215    2.1768678397    0.7528097799
H      3.8197059981    0.8495081537   -0.0159740601
H      3.3949706544    2.2809375705   -0.9519034259
