27

C     -1.5653172983   -0.9031915634    1.6312458645
C     -2.3476243908    0.1953949448    0.9067800220
C     -1.4300038893    0.6810335980   -0.2179556514
N     -0.1623501308   -0.1132886505   -0.0686814425
C     -0.1227674132   -0.5066664689    1.3557760100
H     -1.7799187042   -1.8838110486    1.2036058856
H     -2.5236722703    1.0403046256    1.5774224259
H     -3.3060542221   -0.1523221244    0.5286993582
H     -1.8350293669    0.5134333415   -1.2182891085
H     -0.2675377675   -0.9616943110   -0.6408125007
H      0.1494458345    0.3752355061    1.9391957122
H      0.5946437467   -1.3070593374    1.5245139537
H     -1.7857714350   -0.9311196374    2.6945600793
C     -1.1387711738    2.2632398529   -0.1162260187
O     -1.3086464236    2.7897521767    0.9774358626
O     -0.7661850096    2.7745939700   -1.1912653896
H      0.2490609699    1.6902505118   -1.9310432476
C      1.0843691236    0.5694792271   -0.6098501483
C      2.2928891977   -0.3662853769   -0.5105607032
C      2.0808997123   -1.6949367945   -1.2328337045
O      0.8560641696    0.8997528948   -1.9219000911
H      1.2327140961    1.4572859092    0.0247705521
H      3.1152173361    0.1685781243   -0.9872820490
H      2.5578563847   -0.5226595234    0.5344790777
H      1.3935371902   -2.3481872702   -0.6987998609
H      1.7030363819   -1.5105556794   -2.2355450828
H      3.0299153518   -2.2165568969   -1.3174398048
